opendss_models/real_system_anonymized/real_system_anonymized.dss
! Generated by DNR for Anonymized real distribution system
Clear
New Circuit.real_system_anonymized bus1=0 basekv=13.2 pu=1.0 phases=3

New Line.L1 phases=3 bus1=0 bus2=1 r1=1.8025 x1=1.3253 r0=2.2626 x0=5.1684 c1=0 c0=0 length=0.38 units=km
New Line.L2 phases=3 bus1=1 bus2=2 r1=1.8025 x1=1.3253 r0=2.2626 x0=5.1684 c1=0 c0=0 length=0.47 units=km
New Line.L3 phases=3 bus1=2 bus2=3 r1=1.8025 x1=1.3253 r0=2.2626 x0=5.1684 c1=0 c0=0 length=0.6 units=km
New Line.L4 phases=3 bus1=3 bus2=4 r1=1.8025 x1=1.3253 r0=2.2626 x0=5.1684 c1=0 c0=0 length=0.126 units=km
New Line.L5 phases=3 bus1=4 bus2=5 r1=1.8025 x1=1.3253 r0=2.2626 x0=5.1684 c1=0 c0=0 length=0.38 units=km
New Line.L6 phases=3 bus1=5 bus2=6 r1=1.8025 x1=1.3253 r0=2.2626 x0=5.1684 c1=0 c0=0 length=0.107 units=km
New Line.L7 phases=3 bus1=6 bus2=7 r1=1.8025 x1=1.3253 r0=2.2626 x0=5.1684 c1=0 c0=0 length=0.392 units=km
New Line.L8 phases=3 bus1=5 bus2=8 r1=1.8025 x1=1.3253 r0=2.2626 x0=5.1684 c1=0 c0=0 length=0.6 units=km
New Line.L9 phases=3 bus1=8 bus2=9 r1=1.8025 x1=1.3253 r0=2.2626 x0=5.1684 c1=0 c0=0 length=0.117 units=km
New Line.L10 phases=3 bus1=9 bus2=10 r1=1.8025 x1=1.3253 r0=2.2626 x0=5.1684 c1=0 c0=0 length=0.29 units=km
New Line.L11 phases=3 bus1=8 bus2=11 r1=1.8025 x1=1.3253 r0=2.2626 x0=5.1684 c1=0 c0=0 length=0.562 units=km
New Line.L12 phases=3 bus1=0 bus2=12 r1=1.4404 x1=1.2991 r0=1.9005 x0=5.1422 c1=0 c0=0 length=0.405 units=km
New Line.L13 phases=3 bus1=12 bus2=13 r1=1.4404 x1=1.2991 r0=1.9005 x0=5.1422 c1=0 c0=0 length=0.56 units=km
New Line.L14 phases=3 bus1=13 bus2=14 r1=1.4404 x1=1.2991 r0=1.9005 x0=5.1422 c1=0 c0=0 length=0.25 units=km
New Line.L15 phases=3 bus1=14 bus2=15 r1=1.4404 x1=1.2991 r0=1.9005 x0=5.1422 c1=0 c0=0 length=0.588 units=km
New Line.L16 phases=3 bus1=13 bus2=16 r1=1.4404 x1=1.2991 r0=1.9005 x0=5.1422 c1=0 c0=0 length=0.315 units=km
New Line.L17 phases=3 bus1=0 bus2=17 r1=1.8025 x1=1.2644 r0=2.2626 x0=5.29 c1=0 c0=0 length=1.168 units=km
New Line.L18 phases=3 bus1=17 bus2=18 r1=1.8025 x1=1.2644 r0=2.2626 x0=5.29 c1=0 c0=0 length=1.6 units=km
New Line.L19 phases=3 bus1=18 bus2=19 r1=1.8025 x1=1.2644 r0=2.2626 x0=5.29 c1=0 c0=0 length=0.218 units=km
New Line.L20 phases=3 bus1=19 bus2=20 r1=1.8025 x1=1.2644 r0=2.2626 x0=5.29 c1=0 c0=0 length=0.18 units=km
New Line.L21 phases=3 bus1=20 bus2=21 r1=1.8025 x1=1.2644 r0=2.2626 x0=5.29 c1=0 c0=0 length=0.085 units=km
New Line.L22 phases=3 bus1=21 bus2=22 r1=1.8025 x1=1.2644 r0=2.2626 x0=5.29 c1=0 c0=0 length=0.1 units=km
New Line.L23 phases=3 bus1=22 bus2=23 r1=1.8025 x1=1.2644 r0=2.2626 x0=5.29 c1=0 c0=0 length=0.18 units=km
New Line.L24 phases=3 bus1=23 bus2=24 r1=1.8025 x1=1.2644 r0=2.2626 x0=5.29 c1=0 c0=0 length=0.24 units=km
New Line.L25 phases=3 bus1=19 bus2=25 r1=1.8025 x1=1.2644 r0=2.2626 x0=5.29 c1=0 c0=0 length=0.24 units=km
New Line.L26 phases=3 bus1=25 bus2=26 r1=1.8025 x1=1.2644 r0=2.2626 x0=5.29 c1=0 c0=0 length=0.47 units=km
New Line.L27 phases=3 bus1=26 bus2=27 r1=1.8025 x1=1.2644 r0=2.2626 x0=5.29 c1=0 c0=0 length=0.1 units=km
New Line.L28 phases=3 bus1=26 bus2=28 r1=1.8025 x1=1.2644 r0=2.2626 x0=5.29 c1=0 c0=0 length=0.202 units=km
New Line.L29 phases=3 bus1=28 bus2=29 r1=1.8025 x1=1.2644 r0=2.2626 x0=5.29 c1=0 c0=0 length=0.086 units=km
New Line.L30 phases=3 bus1=29 bus2=30 r1=1.8025 x1=1.2644 r0=2.2626 x0=5.29 c1=0 c0=0 length=0.1 units=km
New Line.L31 phases=3 bus1=25 bus2=31 r1=1.8025 x1=1.2644 r0=2.2626 x0=5.29 c1=0 c0=0 length=0.186 units=km
New Line.L32 phases=3 bus1=0 bus2=32 r1=1.8025 x1=1.3102 r0=2.2626 x0=5.1984 c1=0 c0=0 length=0.2 units=km
New Line.L33 phases=3 bus1=32 bus2=33 r1=1.8025 x1=1.3102 r0=2.2626 x0=5.1984 c1=0 c0=0 length=0.215 units=km
New Line.L34 phases=3 bus1=33 bus2=34 r1=1.8025 x1=1.3102 r0=2.2626 x0=5.1984 c1=0 c0=0 length=0.613 units=km
New Line.L35 phases=3 bus1=34 bus2=35 r1=1.8025 x1=1.3102 r0=2.2626 x0=5.1984 c1=0 c0=0 length=0.206 units=km
New Line.L36 phases=3 bus1=35 bus2=36 r1=1.8025 x1=1.3102 r0=2.2626 x0=5.1984 c1=0 c0=0 length=0.216 units=km
New Line.L37 phases=3 bus1=36 bus2=37 r1=1.8025 x1=1.3102 r0=2.2626 x0=5.1984 c1=0 c0=0 length=0.275 units=km
New Line.L38 phases=3 bus1=37 bus2=38 r1=1.8025 x1=1.3102 r0=2.2626 x0=5.1984 c1=0 c0=0 length=0.1 units=km
New Line.L39 phases=3 bus1=38 bus2=39 r1=1.8025 x1=1.3102 r0=2.2626 x0=5.1984 c1=0 c0=0 length=0.202 units=km
New Line.L40 phases=3 bus1=38 bus2=40 r1=1.8025 x1=1.3102 r0=2.2626 x0=5.1984 c1=0 c0=0 length=0.609 units=km
New Line.L41 phases=3 bus1=40 bus2=41 r1=1.8025 x1=1.3102 r0=2.2626 x0=5.1984 c1=0 c0=0 length=0.114 units=km
New Line.L42 phases=3 bus1=41 bus2=42 r1=1.8025 x1=1.3102 r0=2.2626 x0=5.1984 c1=0 c0=0 length=0.16 units=km
New Line.L43 phases=3 bus1=42 bus2=43 r1=1.8025 x1=1.3102 r0=2.2626 x0=5.1984 c1=0 c0=0 length=0.44 units=km
New Line.L44 phases=3 bus1=44 bus2=45 r1=1.8025 x1=1.3102 r0=2.2626 x0=5.1984 c1=0 c0=0 length=0.28 units=km
New Line.L45 phases=3 bus1=44 bus2=50 r1=1.8025 x1=1.3102 r0=2.2626 x0=5.1984 c1=0 c0=0 length=0.135 units=km
New Line.L46 phases=3 bus1=40 bus2=46 r1=1.8025 x1=1.3102 r0=2.2626 x0=5.1984 c1=0 c0=0 length=0.046 units=km
New Line.L47 phases=3 bus1=46 bus2=47 r1=1.8025 x1=1.3102 r0=2.2626 x0=5.1984 c1=0 c0=0 length=0.275 units=km
New Line.L48 phases=3 bus1=47 bus2=48 r1=1.8025 x1=1.3102 r0=2.2626 x0=5.1984 c1=0 c0=0 length=0.243 units=km
New Line.L49 phases=3 bus1=48 bus2=49 r1=1.8025 x1=1.3102 r0=2.2626 x0=5.1984 c1=0 c0=0 length=0.13 units=km
New Line.L50 phases=3 bus1=50 bus2=51 r1=1.8025 x1=1.3102 r0=2.2626 x0=5.1984 c1=0 c0=0 length=0.45 units=km
New Line.L51 phases=3 bus1=51 bus2=52 r1=1.8025 x1=1.3102 r0=2.2626 x0=5.1984 c1=0 c0=0 length=0.665 units=km
New Line.L52 phases=3 bus1=52 bus2=53 r1=1.8025 x1=1.3102 r0=2.2626 x0=5.1984 c1=0 c0=0 length=0.62 units=km
New Line.L53 phases=3 bus1=33 bus2=53 r1=1.8025 x1=1.3102 r0=2.2626 x0=5.1984 c1=0 c0=0 length=0.264 units=km
New Line.L54 phases=3 bus1=0 bus2=54 r1=2.6564 x1=1.3014 r0=3.1155 x0=5.1445 c1=0 c0=0 length=0.15 units=km
New Line.L55 phases=3 bus1=54 bus2=55 r1=2.6564 x1=1.3014 r0=3.1155 x0=5.1445 c1=0 c0=0 length=0.367 units=km
New Line.L56 phases=3 bus1=55 bus2=56 r1=2.6564 x1=1.3014 r0=3.1155 x0=5.1445 c1=0 c0=0 length=0.388 units=km
New Line.L57 phases=3 bus1=56 bus2=57 r1=2.6564 x1=1.3014 r0=3.1155 x0=5.1445 c1=0 c0=0 length=0.338 units=km
New Line.L58 phases=3 bus1=57 bus2=58 r1=2.6564 x1=1.3014 r0=3.1155 x0=5.1445 c1=0 c0=0 length=0.256 units=km
New Line.L59 phases=3 bus1=58 bus2=59 r1=2.6564 x1=1.3014 r0=3.1155 x0=5.1445 c1=0 c0=0 length=0.377 units=km
New Line.L60 phases=3 bus1=59 bus2=60 r1=2.6564 x1=1.3014 r0=3.1155 x0=5.1445 c1=0 c0=0 length=0.332 units=km
New Line.L61 phases=3 bus1=0 bus2=61 r1=1.8025 x1=1.2644 r0=2.2626 x0=5.29 c1=0 c0=0 length=0.38 units=km
New Line.L62 phases=3 bus1=61 bus2=62 r1=1.8025 x1=1.2644 r0=2.2626 x0=5.29 c1=0 c0=0 length=0.24 units=km
New Line.L63 phases=3 bus1=62 bus2=63 r1=1.8025 x1=1.2644 r0=2.2626 x0=5.29 c1=0 c0=0 length=0.51 units=km
New Line.L64 phases=3 bus1=63 bus2=64 r1=1.8025 x1=1.2644 r0=2.2626 x0=5.29 c1=0 c0=0 length=0.11 units=km
New Line.L65 phases=3 bus1=64 bus2=65 r1=1.8025 x1=1.2644 r0=2.2626 x0=5.29 c1=0 c0=0 length=0.18 units=km
New Line.L66 phases=3 bus1=65 bus2=66 r1=1.8025 x1=1.2644 r0=2.2626 x0=5.29 c1=0 c0=0 length=0.182 units=km
New Line.L67 phases=3 bus1=66 bus2=67 r1=1.8025 x1=1.2644 r0=2.2626 x0=5.29 c1=0 c0=0 length=0.5 units=km
New Line.L68 phases=3 bus1=67 bus2=68 r1=1.8025 x1=1.2644 r0=2.2626 x0=5.29 c1=0 c0=0 length=0.14 units=km
New Line.L69 phases=3 bus1=68 bus2=69 r1=1.8025 x1=1.2644 r0=2.2626 x0=5.29 c1=0 c0=0 length=0.1 units=km
New Line.L70 phases=3 bus1=68 bus2=70 r1=1.8025 x1=1.2644 r0=2.2626 x0=5.29 c1=0 c0=0 length=0.21 units=km
New Line.L71 phases=3 bus1=70 bus2=71 r1=1.8025 x1=1.2644 r0=2.2626 x0=5.29 c1=0 c0=0 length=0.25 units=km
New Line.L72 phases=3 bus1=70 bus2=72 r1=1.8025 x1=1.2644 r0=2.2626 x0=5.29 c1=0 c0=0 length=0.066 units=km
New Line.L73 phases=3 bus1=72 bus2=73 r1=1.8025 x1=1.2644 r0=2.2626 x0=5.29 c1=0 c0=0 length=0.33 units=km
New Line.L74 phases=3 bus1=0 bus2=74 r1=1.8025 x1=1.2644 r0=2.2626 x0=5.29 c1=0 c0=0 length=1.019 units=km
New Line.L75 phases=3 bus1=74 bus2=75 r1=1.8025 x1=1.2644 r0=2.2626 x0=5.29 c1=0 c0=0 length=0.18 units=km
New Line.L76 phases=3 bus1=75 bus2=76 r1=1.8025 x1=1.2644 r0=2.2626 x0=5.29 c1=0 c0=0 length=0.16 units=km
New Line.L77 phases=3 bus1=76 bus2=77 r1=1.8025 x1=1.2644 r0=2.2626 x0=5.29 c1=0 c0=0 length=0.19 units=km
New Line.L78 phases=3 bus1=77 bus2=78 r1=1.8025 x1=1.2644 r0=2.2626 x0=5.29 c1=0 c0=0 length=0.07 units=km
New Line.L79 phases=3 bus1=78 bus2=79 r1=1.8025 x1=1.2644 r0=2.2626 x0=5.29 c1=0 c0=0 length=0.11 units=km
New Line.L80 phases=3 bus1=79 bus2=80 r1=1.8025 x1=1.2644 r0=2.2626 x0=5.29 c1=0 c0=0 length=0.59 units=km
New Line.L81 phases=3 bus1=77 bus2=81 r1=1.8025 x1=1.2644 r0=2.2626 x0=5.29 c1=0 c0=0 length=0.13 units=km
New Line.L82 phases=3 bus1=76 bus2=82 r1=1.8025 x1=1.2644 r0=2.2626 x0=5.29 c1=0 c0=0 length=0.21 units=km
New Line.L83 phases=3 bus1=82 bus2=83 r1=1.8025 x1=1.2644 r0=2.2626 x0=5.29 c1=0 c0=0 length=0.1 units=km
New Line.L84 phases=3 bus1=83 bus2=84 r1=1.8025 x1=1.2644 r0=2.2626 x0=5.29 c1=0 c0=0 length=0.24 units=km
New Line.L85 phases=3 bus1=84 bus2=85 r1=1.8025 x1=1.2644 r0=2.2626 x0=5.29 c1=0 c0=0 length=0.4 units=km
New Line.L86 phases=3 bus1=85 bus2=86 r1=1.8025 x1=1.2644 r0=2.2626 x0=5.29 c1=0 c0=0 length=0.165 units=km
New Line.L87 phases=3 bus1=86 bus2=87 r1=1.8025 x1=1.2644 r0=2.2626 x0=5.29 c1=0 c0=0 length=0.425 units=km
New Line.L88 phases=3 bus1=87 bus2=88 r1=1.8025 x1=1.2644 r0=2.2626 x0=5.29 c1=0 c0=0 length=0.215 units=km
New Line.L89 phases=3 bus1=88 bus2=89 r1=1.8025 x1=1.2644 r0=2.2626 x0=5.29 c1=0 c0=0 length=0.15 units=km
New Line.L90 phases=3 bus1=74 bus2=90 r1=1.8025 x1=1.2644 r0=2.2626 x0=5.29 c1=0 c0=0 length=0.44 units=km
New Line.L91 phases=3 bus1=90 bus2=91 r1=1.8025 x1=1.2644 r0=2.2626 x0=5.29 c1=0 c0=0 length=0.2 units=km
New Line.L92 phases=3 bus1=91 bus2=92 r1=1.8025 x1=1.2644 r0=2.2626 x0=5.29 c1=0 c0=0 length=0.18 units=km
New Line.L93 phases=3 bus1=0 bus2=93 r1=2.6554 x1=1.2863 r0=3.1155 x0=7.1746 c1=0 c0=0 length=0.5 units=km
New Line.L94 phases=3 bus1=93 bus2=94 r1=2.6554 x1=1.2863 r0=3.1155 x0=7.1746 c1=0 c0=0 length=0.766 units=km
New Line.L95 phases=3 bus1=94 bus2=95 r1=2.6554 x1=1.2863 r0=3.1155 x0=7.1746 c1=0 c0=0 length=1.03 units=km
New Line.L96 phases=3 bus1=95 bus2=96 r1=2.6554 x1=1.2863 r0=3.1155 x0=7.1746 c1=0 c0=0 length=0.44 units=km
New Line.L97 phases=3 bus1=96 bus2=97 r1=2.6554 x1=1.2863 r0=3.1155 x0=7.1746 c1=0 c0=0 length=0.57 units=km
New Line.L98 phases=3 bus1=97 bus2=98 r1=2.6554 x1=1.2863 r0=3.1155 x0=7.1746 c1=0 c0=0 length=0.111 units=km
New Line.L99 phases=3 bus1=98 bus2=99 r1=2.6554 x1=1.2863 r0=3.1155 x0=7.1746 c1=0 c0=0 length=0.068 units=km
New Line.L100 phases=3 bus1=99 bus2=100 r1=2.6554 x1=1.2863 r0=3.1155 x0=7.1746 c1=0 c0=0 length=2.25 units=km
New Line.L101 phases=3 bus1=94 bus2=101 r1=2.6554 x1=1.2863 r0=3.1155 x0=7.1746 c1=0 c0=0 length=0.915 units=km
New Line.L102 phases=3 bus1=0 bus2=102 r1=1.8025 x1=1.3102 r0=2.2626 x0=5.1984 c1=0 c0=0 length=0.16 units=km
New Line.L103 phases=3 bus1=102 bus2=103 r1=1.8025 x1=1.3102 r0=2.2626 x0=5.1984 c1=0 c0=0 length=0.15 units=km
New Line.L104 phases=3 bus1=103 bus2=104 r1=1.8025 x1=1.3102 r0=2.2626 x0=5.1984 c1=0 c0=0 length=0.277 units=km
New Line.L105 phases=3 bus1=104 bus2=105 r1=1.8025 x1=1.3102 r0=2.2626 x0=5.1984 c1=0 c0=0 length=0.72 units=km
New Line.L106 phases=3 bus1=105 bus2=106 r1=1.8025 x1=1.3102 r0=2.2626 x0=5.1984 c1=0 c0=0 length=0.7 units=km
New Line.L107 phases=3 bus1=106 bus2=107 r1=1.8025 x1=1.3102 r0=2.2626 x0=5.1984 c1=0 c0=0 length=0.122 units=km
New Line.L108 phases=3 bus1=104 bus2=108 r1=1.8025 x1=1.3102 r0=2.2626 x0=5.1984 c1=0 c0=0 length=0.68 units=km
New Line.L109 phases=3 bus1=108 bus2=109 r1=1.8025 x1=1.3102 r0=2.2626 x0=5.1984 c1=0 c0=0 length=0.4 units=km
New Line.L110 phases=3 bus1=6 bus2=106 r1=1.8025 x1=1.3253 r0=2.2626 x0=5.1684 c1=0 c0=0 length=0.12 units=km
New Line.L111 phases=3 bus1=7 bus2=104 r1=1.8025 x1=1.3253 r0=2.2626 x0=5.1684 c1=0 c0=0 length=0.09 units=km
New Line.L112 phases=3 bus1=9 bus2=19 r1=1.8025 x1=1.3253 r0=2.2626 x0=5.1684 c1=0 c0=0 length=0.1 units=km
New Line.L113 phases=3 bus1=11 bus2=22 r1=1.8025 x1=1.3253 r0=2.2626 x0=5.1684 c1=0 c0=0 length=0.2 units=km
New Line.L114 phases=3 bus1=28 bus2=31 r1=1.8025 x1=1.2644 r0=2.2626 x0=5.29 c1=0 c0=0 length=0.2 units=km
New Line.L115 phases=3 bus1=15 bus2=18 r1=1.4404 x1=1.2991 r0=1.9005 x0=5.1422 c1=0 c0=0 length=0.06 units=km
New Line.L116 phases=3 bus1=16 bus2=34 r1=1.4404 x1=1.2991 r0=1.9005 x0=5.1422 c1=0 c0=0 length=0.05 units=km
New Line.L117 phases=3 bus1=11 bus2=49 r1=1.8025 x1=1.3253 r0=2.2626 x0=5.1684 c1=0 c0=0 length=0.06 units=km
New Line.L118 phases=3 bus1=23 bus2=43 r1=1.8025 x1=1.2644 r0=2.2626 x0=5.29 c1=0 c0=0 length=0.07 units=km
New Line.L119 phases=3 bus1=45 bus2=67 r1=1.8025 x1=1.2644 r0=2.2626 x0=5.29 c1=0 c0=0 length=0.17 units=km
New Line.L120 phases=3 bus1=41 bus2=51 r1=1.8025 x1=1.3102 r0=2.2626 x0=5.1984 c1=0 c0=0 length=0.04 units=km
New Line.L121 phases=3 bus1=24 bus2=65 r1=1.8025 x1=1.2644 r0=2.2626 x0=5.29 c1=0 c0=0 length=0.09 units=km
New Line.L122 phases=3 bus1=30 bus2=64 r1=1.8025 x1=1.2644 r0=2.2626 x0=5.29 c1=0 c0=0 length=0.04 units=km
New Line.L123 phases=3 bus1=27 bus2=92 r1=1.8025 x1=1.2644 r0=2.2626 x0=5.29 c1=0 c0=0 length=0.08 units=km
New Line.L124 phases=3 bus1=26 bus2=62 r1=1.8025 x1=1.2644 r0=2.2626 x0=5.29 c1=0 c0=0 length=1e-06 units=km
New Line.L125 phases=3 bus1=29 bus2=74 r1=1.8025 x1=1.2644 r0=2.2626 x0=5.29 c1=0 c0=0 length=0.09 units=km
New Line.L126 phases=3 bus1=10 bus2=61 r1=1.8025 x1=1.3253 r0=2.2626 x0=5.1684 c1=0 c0=0 length=0.05 units=km
New Line.L127 phases=3 bus1=89 bus2=90 r1=1.8025 x1=1.2644 r0=2.2626 x0=5.29 c1=0 c0=0 length=0.05 units=km
New Line.L128 phases=3 bus1=86 bus2=95 r1=1.8025 x1=1.2644 r0=2.2626 x0=5.29 c1=0 c0=0 length=0.06 units=km
New Line.L129 phases=3 bus1=80 bus2=100 r1=1.8025 x1=1.2644 r0=2.2626 x0=5.29 c1=0 c0=0 length=0.08 units=km
New Line.L130 phases=3 bus1=43 bus2=44 r1=1.8025 x1=1.3102 r0=2.2626 x0=5.1984 c1=0 c0=0 length=0.06 units=km
New Line.L131 phases=3 bus1=105 bus2=109 r1=1.8025 x1=1.3102 r0=2.2626 x0=5.1984 c1=0 c0=0 length=0.06 units=km

New Load.Load1 bus1=1 phases=3 conn=wye kv=13.2 kw=285.93 kvar=138.48 model=1
New Load.Load2 bus1=2 phases=3 conn=wye kv=13.2 kw=502.92 kvar=243.58 model=1
New Load.Load3 bus1=3 phases=3 conn=wye kv=13.2 kw=185.67 kvar=89.92 model=1
New Load.Load4 bus1=4 phases=3 conn=wye kv=13.2 kw=314.64 kvar=152.39 model=1
New Load.Load5 bus1=5 phases=3 conn=wye kv=13.2 kw=637.2 kvar=308.61 model=1
New Load.Load6 bus1=6 phases=3 conn=wye kv=13.2 kw=278.91 kvar=135.08 model=1
New Load.Load7 bus1=7 phases=3 conn=wye kv=13.2 kw=601.47 kvar=291.31 model=1
New Load.Load8 bus1=8 phases=3 conn=wye kv=13.2 kw=36.63 kvar=17.74 model=1
New Load.Load9 bus1=9 phases=3 conn=wye kv=13.2 kw=188.28 kvar=91.19 model=1
New Load.Load10 bus1=10 phases=3 conn=wye kv=13.2 kw=102.87 kvar=49.82 model=1
New Load.Load11 bus1=11 phases=3 conn=wye kv=13.2 kw=246.69 kvar=119.48 model=1
New Load.Load12 bus1=12 phases=3 conn=wye kv=13.2 kw=228.96 kvar=110.89 model=1
New Load.Load13 bus1=13 phases=3 conn=wye kv=13.2 kw=119.52 kvar=57.89 model=1
New Load.Load14 bus1=14 phases=3 conn=wye kv=13.2 kw=195.66 kvar=94.76 model=1
New Load.Load15 bus1=15 phases=3 conn=wye kv=13.2 kw=13.05 kvar=6.32 model=1
New Load.Load16 bus1=16 phases=3 conn=wye kv=13.2 kw=213.03 kvar=103.18 model=1
New Load.Load17 bus1=17 phases=3 conn=wye kv=13.2 kw=28.26 kvar=13.69 model=1
New Load.Load18 bus1=18 phases=3 conn=wye kv=13.2 kw=996.48 kvar=482.62 model=1
New Load.Load19 bus1=19 phases=3 conn=wye kv=13.2 kw=609.03 kvar=294.97 model=1
New Load.Load20 bus1=20 phases=3 conn=wye kv=13.2 kw=271.26 kvar=131.38 model=1
New Load.Load21 bus1=21 phases=3 conn=wye kv=13.2 kw=600.93 kvar=291.04 model=1
New Load.Load22 bus1=22 phases=3 conn=wye kv=13.2 kw=353.16 kvar=171.04 model=1
New Load.Load23 bus1=23 phases=3 conn=wye kv=13.2 kw=152.55 kvar=73.88 model=1
New Load.Load24 bus1=24 phases=3 conn=wye kv=13.2 kw=124.29 kvar=60.2 model=1
New Load.Load25 bus1=25 phases=3 conn=wye kv=13.2 kw=128.07 kvar=62.03 model=1
New Load.Load26 bus1=26 phases=3 conn=wye kv=13.2 kw=310.77 kvar=150.51 model=1
New Load.Load27 bus1=27 phases=3 conn=wye kv=13.2 kw=153.54 kvar=74.36 model=1
New Load.Load28 bus1=28 phases=3 conn=wye kv=13.2 kw=113.04 kvar=54.75 model=1
New Load.Load29 bus1=29 phases=3 conn=wye kv=13.2 kw=294.84 kvar=142.8 model=1
New Load.Load30 bus1=30 phases=3 conn=wye kv=13.2 kw=90.45 kvar=43.81 model=1
New Load.Load32 bus1=32 phases=3 conn=wye kv=13.2 kw=192.15 kvar=93.06 model=1
New Load.Load33 bus1=33 phases=3 conn=wye kv=13.2 kw=38.34 kvar=18.57 model=1
New Load.Load34 bus1=34 phases=3 conn=wye kv=13.2 kw=18.27 kvar=8.85 model=1
New Load.Load35 bus1=35 phases=3 conn=wye kv=13.2 kw=136.89 kvar=66.3 model=1
New Load.Load36 bus1=36 phases=3 conn=wye kv=13.2 kw=831.42 kvar=402.68 model=1
New Load.Load37 bus1=37 phases=3 conn=wye kv=13.2 kw=199.89 kvar=96.81 model=1
New Load.Load38 bus1=38 phases=3 conn=wye kv=13.2 kw=647.01 kvar=313.36 model=1
New Load.Load39 bus1=39 phases=3 conn=wye kv=13.2 kw=709.11 kvar=343.44 model=1
New Load.Load40 bus1=40 phases=3 conn=wye kv=13.2 kw=5.49 kvar=2.66 model=1
New Load.Load41 bus1=41 phases=3 conn=wye kv=13.2 kw=87.57 kvar=42.41 model=1
New Load.Load42 bus1=42 phases=3 conn=wye kv=13.2 kw=175.23 kvar=84.87 model=1
New Load.Load43 bus1=43 phases=3 conn=wye kv=13.2 kw=139.59 kvar=67.61 model=1
New Load.Load44 bus1=44 phases=3 conn=wye kv=13.2 kw=65.7 kvar=31.82 model=1
New Load.Load45 bus1=45 phases=3 conn=wye kv=13.2 kw=68.49 kvar=33.17 model=1
New Load.Load46 bus1=46 phases=3 conn=wye kv=13.2 kw=232.74 kvar=112.72 model=1
New Load.Load47 bus1=47 phases=3 conn=wye kv=13.2 kw=139.59 kvar=67.61 model=1
New Load.Load48 bus1=48 phases=3 conn=wye kv=13.2 kw=162.45 kvar=78.68 model=1
New Load.Load49 bus1=49 phases=3 conn=wye kv=13.2 kw=43.83 kvar=21.23 model=1
New Load.Load50 bus1=50 phases=3 conn=wye kv=13.2 kw=309.33 kvar=149.82 model=1
New Load.Load51 bus1=51 phases=3 conn=wye kv=13.2 kw=929.09 kvar=449.97 model=1
New Load.Load52 bus1=52 phases=3 conn=wye kv=13.2 kw=235.08 kvar=113.85 model=1
New Load.Load53 bus1=53 phases=3 conn=wye kv=13.2 kw=268.29 kvar=129.94 model=1
New Load.Load54 bus1=54 phases=3 conn=wye kv=13.2 kw=272.79 kvar=132.12 model=1
New Load.Load55 bus1=55 phases=3 conn=wye kv=13.2 kw=52.65 kvar=25.5 model=1
New Load.Load56 bus1=56 phases=3 conn=wye kv=13.2 kw=286.83 kvar=138.92 model=1
New Load.Load57 bus1=57 phases=3 conn=wye kv=13.2 kw=25.02 kvar=12.12 model=1
New Load.Load58 bus1=58 phases=3 conn=wye kv=13.2 kw=30.69 kvar=14.86 model=1
New Load.Load59 bus1=59 phases=3 conn=wye kv=13.2 kw=46.08 kvar=22.32 model=1
New Load.Load60 bus1=60 phases=3 conn=wye kv=13.2 kw=413.01 kvar=200.03 model=1
New Load.Load61 bus1=61 phases=3 conn=wye kv=13.2 kw=100.98 kvar=48.91 model=1
New Load.Load62 bus1=62 phases=3 conn=wye kv=13.2 kw=42.93 kvar=20.79 model=1
New Load.Load63 bus1=63 phases=3 conn=wye kv=13.2 kw=64.44 kvar=31.21 model=1
New Load.Load64 bus1=64 phases=3 conn=wye kv=13.2 kw=234.09 kvar=113.37 model=1
New Load.Load65 bus1=65 phases=3 conn=wye kv=13.2 kw=53.73 kvar=26.02 model=1
New Load.Load66 bus1=66 phases=3 conn=wye kv=13.2 kw=92.14 kvar=141.49 model=1
New Load.Load67 bus1=67 phases=3 conn=wye kv=13.2 kw=42.93 kvar=20.79 model=1
New Load.Load68 bus1=68 phases=3 conn=wye kv=13.2 kw=109.53 kvar=53.05 model=1
New Load.Load69 bus1=69 phases=3 conn=wye kv=13.2 kw=341.55 kvar=165.42 model=1
New Load.Load70 bus1=70 phases=3 conn=wye kv=13.2 kw=167.49 kvar=81.12 model=1
New Load.Load71 bus1=71 phases=3 conn=wye kv=13.2 kw=143.91 kvar=69.7 model=1
New Load.Load72 bus1=72 phases=3 conn=wye kv=13.2 kw=154.62 kvar=74.89 model=1
New Load.Load73 bus1=73 phases=3 conn=wye kv=13.2 kw=214.83 kvar=104.05 model=1
New Load.Load74 bus1=74 phases=3 conn=wye kv=13.2 kw=87.39 kvar=42.32 model=1
New Load.Load75 bus1=75 phases=3 conn=wye kv=13.2 kw=74.79 kvar=36.22 model=1
New Load.Load76 bus1=76 phases=3 conn=wye kv=13.2 kw=116.64 kvar=56.49 model=1
New Load.Load77 bus1=77 phases=3 conn=wye kv=13.2 kw=66.42 kvar=32.17 model=1
New Load.Load78 bus1=78 phases=3 conn=wye kv=13.2 kw=28.71 kvar=13.9 model=1
New Load.Load79 bus1=79 phases=3 conn=wye kv=13.2 kw=108.27 kvar=52.44 model=1
New Load.Load80 bus1=80 phases=3 conn=wye kv=13.2 kw=239.31 kvar=115.9 model=1
New Load.Load81 bus1=81 phases=3 conn=wye kv=13.2 kw=561.78 kvar=272.08 model=1
New Load.Load82 bus1=82 phases=3 conn=wye kv=13.2 kw=37.71 kvar=18.26 model=1
New Load.Load83 bus1=83 phases=3 conn=wye kv=13.2 kw=289.53 kvar=140.23 model=1
New Load.Load84 bus1=84 phases=3 conn=wye kv=13.2 kw=32.31 kvar=15.65 model=1
New Load.Load85 bus1=85 phases=3 conn=wye kv=13.2 kw=25.11 kvar=12.16 model=1
New Load.Load86 bus1=86 phases=3 conn=wye kv=13.2 kw=75.42 kvar=36.53 model=1
New Load.Load87 bus1=87 phases=3 conn=wye kv=13.2 kw=86.13 kvar=41.71 model=1
New Load.Load88 bus1=88 phases=3 conn=wye kv=13.2 kw=311.13 kvar=150.69 model=1
New Load.Load89 bus1=89 phases=3 conn=wye kv=13.2 kw=64.62 kvar=31.3 model=1
New Load.Load90 bus1=90 phases=3 conn=wye kv=13.2 kw=26.91 kvar=13.03 model=1
New Load.Load91 bus1=91 phases=3 conn=wye kv=13.2 kw=71.19 kvar=34.48 model=1
New Load.Load92 bus1=92 phases=3 conn=wye kv=13.2 kw=3.6 kvar=1.74 model=1
New Load.Load93 bus1=93 phases=3 conn=wye kv=13.2 kw=199.35 kvar=96.55 model=1
New Load.Load94 bus1=94 phases=3 conn=wye kv=13.2 kw=11.7 kvar=5.67 model=1
New Load.Load95 bus1=95 phases=3 conn=wye kv=13.2 kw=240.84 kvar=116.64 model=1
New Load.Load96 bus1=96 phases=3 conn=wye kv=13.2 kw=11.7 kvar=5.67 model=1
New Load.Load97 bus1=97 phases=3 conn=wye kv=13.2 kw=10.17 kvar=4.93 model=1
New Load.Load98 bus1=98 phases=3 conn=wye kv=13.2 kw=45.63 kvar=22.1 model=1
New Load.Load99 bus1=99 phases=3 conn=wye kv=13.2 kw=14.31 kvar=6.93 model=1
New Load.Load100 bus1=100 phases=3 conn=wye kv=13.2 kw=19.53 kvar=9.46 model=1
New Load.Load101 bus1=101 phases=3 conn=wye kv=13.2 kw=119.25 kvar=57.76 model=1
New Load.Load102 bus1=102 phases=3 conn=wye kv=13.2 kw=116.91 kvar=56.62 model=1
New Load.Load103 bus1=103 phases=3 conn=wye kv=13.2 kw=118.53 kvar=57.41 model=1
New Load.Load104 bus1=104 phases=3 conn=wye kv=13.2 kw=94.59 kvar=45.81 model=1
New Load.Load105 bus1=105 phases=3 conn=wye kv=13.2 kw=33.39 kvar=16.17 model=1
New Load.Load106 bus1=106 phases=3 conn=wye kv=13.2 kw=71.21 kvar=34.52 model=1
New Load.Load107 bus1=107 phases=3 conn=wye kv=13.2 kw=9.99 kvar=4.84 model=1
New Load.Load108 bus1=108 phases=3 conn=wye kv=13.2 kw=279.99 kvar=135.61 model=1
New Load.Load109 bus1=109 phases=3 conn=wye kv=13.2 kw=41.76 kvar=20.23 model=1

Set VoltageBases=[13.2]
CalcVoltageBases
Set MaxIterations=100
